/*--------------------------------*- C++ -*----------------------------------*\
| =========                 |                                                 |
| \\      /  F ield         | OpenFOAM: The Open Source CFD Toolbox           |
|  \\    /   O peration     | Version:  7                                     |
|   \\  /    A nd           | Web:      www.OpenFOAM.com                      |
|    \\/     M anipulation  |                                                 |
\*---------------------------------------------------------------------------*/
FoamFile
{
    version     2.0;
    format      ascii;
    class       dictionary;
    object      fvSolution;
}
// * * * * * * * * * * * * * * * * * * * * * * * * * * * * * * * * * * * * * //
solvers
{

    p
    {
        solver          GAMG;
        smoother        GaussSeidel;
        tolerance       1e-6;
        relTol          0;
        nCellsInCoarsestLevel 1000;
    }

    pFinal
    {
        $p;
        relTol          0;
    }

    "pcorr.*"
    {
        $pFinal;
    }

    U
    {
        /*solver          smoothSolver;
        smoother        symGaussSeidel;
        tolerance       1e-8;
        relTol          0.01;*/

        solver          PBiCGStab;
        preconditioner  DILU;
        tolerance       1e-6;
        relTol          0;
    }

    UFinal
    {
        $U;
        relTol          0;
    }
}

PIMPLE
{
    //momentumPredictor   true;
    //correctPhi          true; 
    //ddtCorr             true;
    
    nOuterCorrectors    10;
    nCorrectors         4;
    nNonOrthogonalCorrectors 2;

    residualControl
    {
        U
        {
                tolerance  1e-5;
                relTol      0;
        }
        p
        {
                tolerance  1e-5;
                relTol      0;
        }
     }
}

relaxationFactors
{
    equations
    {
        ".*"     1;
    }
}
// ************************************************************************* //
